
 OpenBabel02162310103D

 26 29  0  0  1  0  0  0  0  0999 V2000
   68.7420   47.2160   51.9680 C   0  0  0  0  0  1  0  0  0  0  0  0
   68.9260   48.1920   53.0750 C   0  0  1  0  0  3  0  0  0  0  0  0
   69.5480   47.4970   54.2830 C   0  0  0  0  0  2  0  0  0  0  0  0
   68.6420   47.2230   55.3770 C   0  0  1  0  0  3  0  0  0  0  0  0
   68.8850   45.8380   56.0020 C   0  0  0  0  0  1  0  0  0  0  0  0
   68.5160   48.1510   56.5030 C   0  0  2  0  0  3  0  0  0  0  0  0
   67.6470   47.7230   57.3680 O   0  0  0  0  0  1  0  0  0  0  0  0
   69.1940   49.4290   56.7760 C   0  0  0  0  0  0  0  0  0  0  0  0
   70.4240   49.7960   56.7030 C   0  0  0  0  0  0  0  0  0  0  0  0
   71.7830   49.4560   56.4810 O   0  0  0  0  0  0  0  0  0  0  0  0
   72.8040   50.4120   56.5490 C   0  0  2  0  0  3  0  0  0  0  0  0
   72.7280   50.8470   58.0380 C   0  0  2  0  0  3  0  0  0  0  0  0
   72.6350   49.5560   58.8110 C   0  0  0  0  0  1  0  0  0  0  0  0
   71.4280   51.6430   58.0670 C   0  0  0  0  0  2  0  0  0  0  0  0
   70.4750   51.2980   56.9740 C   0  0  2  0  0  0  0  0  0  0  0  0
   69.2280   51.6990   57.3210 O   0  0  0  0  0  0  0  0  0  0  0  0
   68.3780   50.6170   57.1790 C   0  0  0  0  0  0  0  0  0  0  0  0
   67.1130   50.7000   57.3770 O   0  0  0  0  0  0  0  0  0  0  0  0
   70.9880   51.8140   55.5960 C   0  0  2  0  0  3  0  0  0  0  0  0
   70.2510   50.9350   54.5990 C   0  0  0  0  0  3  0  0  0  0  0  0
   70.5360   50.2400   53.5790 C   0  0  0  0  0  3  0  0  0  0  0  0
   69.7390   49.3770   52.6500 C   0  0  0  0  0  0  0  0  0  0  0  0
   69.6950   49.5880   51.3970 O   0  0  0  0  0  0  0  0  0  0  0  0
   72.4460   51.6740   55.7210 C   0  0  1  0  0  3  0  0  0  0  0  0
   73.0660   52.7610   56.2840 O   0  0  0  0  0  0  0  0  0  0  0  0
   72.7610   52.8700   57.1980 H   0  0  0  0  0  0  0  0  0  0  0  0
  2  1  1  6  0  0  0
  2  3  1  0  0  0  0
  3  4  1  0  0  0  0
  4  5  1  1  0  0  0
  4  6  1  0  0  0  0
  6  8  1  0  0  0  0
  6  7  1  6  0  0  0
  8 17  1  0  0  0  0
  9  8  2  0  0  0  0
  9 15  1  0  0  0  0
 10  9  1  0  0  0  0
 11 10  1  1  0  0  0
 11 12  1  0  0  0  0
 12 14  1  0  0  0  0
 12 13  1  1  0  0  0
 15 16  1  0  0  0  0
 15 14  1  1  0  0  0
 17 16  1  0  0  0  0
 17 18  2  0  0  0  0
 19 20  1  6  0  0  0
 19 24  1  0  0  0  0
 19 15  1  0  0  0  0
 21 20  2  0  0  0  0
 22  2  1  0  0  0  0
 22 21  1  0  0  0  0
 23 22  2  0  0  0  0
 24 25  1  1  0  0  0
 24 11  1  0  0  0  0
 25 26  1  0  0  0  0
M  END
>  <minimizedAffinity>
-9.49440002

$$$$

 OpenBabel02162310103D

 26 29  0  0  1  0  0  0  0  0999 V2000
   68.3070   45.8450   52.9570 C   0  0  0  0  0  1  0  0  0  0  0  0
   68.5060   47.1740   53.5950 C   0  0  1  0  0  3  0  0  0  0  0  0
   69.4070   47.0340   54.8190 C   0  0  0  0  0  2  0  0  0  0  0  0
   68.7320   47.1080   56.0980 C   0  0  1  0  0  3  0  0  0  0  0  0
   69.2810   46.0800   57.1040 C   0  0  0  0  0  1  0  0  0  0  0  0
   68.6400   48.3720   56.8310 C   0  0  2  0  0  3  0  0  0  0  0  0
   67.9910   48.2210   57.9450 O   0  0  0  0  0  1  0  0  0  0  0  0
   69.1460   49.7140   56.4990 C   0  0  0  0  0  0  0  0  0  0  0  0
   70.2780   50.1350   56.0590 C   0  0  0  0  0  0  0  0  0  0  0  0
   71.6230   49.8570   55.7030 O   0  0  0  0  0  0  0  0  0  0  0  0
   72.4820   50.8560   55.2280 C   0  0  2  0  0  3  0  0  0  0  0  0
   72.5700   51.8040   56.4550 C   0  0  2  0  0  3  0  0  0  0  0  0
   72.7980   50.8890   57.6310 C   0  0  0  0  0  1  0  0  0  0  0  0
   71.1830   52.4360   56.4630 C   0  0  0  0  0  2  0  0  0  0  0  0
   70.1380   51.6280   55.7730 C   0  0  2  0  0  0  0  0  0  0  0  0
   68.9130   52.0180   56.2010 O   0  0  0  0  0  0  0  0  0  0  0  0
   68.2280   50.8910   56.6160 C   0  0  0  0  0  0  0  0  0  0  0  0
   67.0110   50.9290   57.0230 O   0  0  0  0  0  0  0  0  0  0  0  0
   70.3470   51.6390   54.2290 C   0  0  2  0  0  3  0  0  0  0  0  0
   69.6100   50.3920   53.7700 C   0  0  0  0  0  3  0  0  0  0  0  0
   69.8390   49.3960   53.0210 C   0  0  0  0  0  3  0  0  0  0  0  0
   69.0500   48.1840   52.6300 C   0  0  0  0  0  0  0  0  0  0  0  0
   68.7820   47.9100   51.4180 O   0  0  0  0  0  0  0  0  0  0  0  0
   71.8100   51.6840   54.1020 C   0  0  1  0  0  3  0  0  0  0  0  0
   72.3350   52.9520   54.1150 O   0  0  0  0  0  0  0  0  0  0  0  0
   72.1610   53.3650   54.9750 H   0  0  0  0  0  0  0  0  0  0  0  0
  2  1  1  6  0  0  0
  2  3  1  0  0  0  0
  3  4  1  0  0  0  0
  4  6  1  0  0  0  0
  4  5  1  1  0  0  0
  6  7  1  6  0  0  0
  8 17  1  0  0  0  0
  8  6  1  0  0  0  0
  9  8  2  0  0  0  0
 10  9  1  0  0  0  0
 11 10  1  1  0  0  0
 11 12  1  0  0  0  0
 12 14  1  0  0  0  0
 12 13  1  1  0  0  0
 15  9  1  0  0  0  0
 15 16  1  0  0  0  0
 15 14  1  1  0  0  0
 16 17  1  0  0  0  0
 17 18  2  0  0  0  0
 19 20  1  6  0  0  0
 19 15  1  0  0  0  0
 21 20  2  0  0  0  0
 22 21  1  0  0  0  0
 22  2  1  0  0  0  0
 23 22  2  0  0  0  0
 24 25  1  1  0  0  0
 24 19  1  0  0  0  0
 24 11  1  0  0  0  0
 25 26  1  0  0  0  0
M  END
>  <minimizedAffinity>
-8.81291676

$$$$

 OpenBabel02162310103D

 26 29  0  0  1  0  0  0  0  0999 V2000
   71.0710   46.0790   58.9260 C   0  0  0  0  0  1  0  0  0  0  0  0
   71.3550   47.1950   57.9840 C   0  0  1  0  0  3  0  0  0  0  0  0
   70.1720   48.1580   57.9480 C   0  0  0  0  0  2  0  0  0  0  0  0
   69.3380   48.0730   56.7680 C   0  0  1  0  0  3  0  0  0  0  0  0
   67.8410   48.1880   57.1050 C   0  0  0  0  0  1  0  0  0  0  0  0
   69.5570   48.9590   55.6220 C   0  0  2  0  0  3  0  0  0  0  0  0
   68.7090   48.7130   54.6700 O   0  0  0  0  0  1  0  0  0  0  0  0
   70.5490   50.0260   55.4080 C   0  0  0  0  0  0  0  0  0  0  0  0
   70.9600   50.9950   56.1460 C   0  0  0  0  0  0  0  0  0  0  0  0
   70.8430   51.7440   57.3460 O   0  0  0  0  0  0  0  0  0  0  0  0
   71.6790   52.8330   57.6190 C   0  0  2  0  0  3  0  0  0  0  0  0
   71.2920   53.8190   56.4820 C   0  0  2  0  0  3  0  0  0  0  0  0
   69.7850   53.8080   56.4610 C   0  0  0  0  0  1  0  0  0  0  0  0
   71.9010   53.1410   55.2600 C   0  0  0  0  0  2  0  0  0  0  0  0
   72.1150   51.6750   55.4160 C   0  0  2  0  0  0  0  0  0  0  0  0
   72.2250   51.1040   54.1920 O   0  0  0  0  0  0  0  0  0  0  0  0
   71.3280   50.0530   54.1310 C   0  0  0  0  0  0  0  0  0  0  0  0
   71.2390   49.2770   53.1120 O   0  0  0  0  0  0  0  0  0  0  0  0
   73.2840   51.3790   56.4040 C   0  0  2  0  0  3  0  0  0  0  0  0
   73.0000   49.9580   56.8620 C   0  0  0  0  0  3  0  0  0  0  0  0
   72.9350   49.3270   57.9580 C   0  0  0  0  0  3  0  0  0  0  0  0
   72.6280   47.9080   58.3270 C   0  0  0  0  0  0  0  0  0  0  0  0
   73.4440   47.1840   58.9790 O   0  0  0  0  0  0  0  0  0  0  0  0
   73.1680   52.4730   57.3780 C   0  0  1  0  0  3  0  0  0  0  0  0
   73.8450   53.6130   57.0230 O   0  0  0  0  0  0  0  0  0  0  0  0
   73.4590   53.9780   56.2120 H   0  0  0  0  0  0  0  0  0  0  0  0
  2 22  1  0  0  0  0
  2  1  1  1  0  0  0
  3  2  1  0  0  0  0
  4  5  1  1  0  0  0
  4  3  1  0  0  0  0
  6  7  1  6  0  0  0
  6  4  1  0  0  0  0
  8  6  1  0  0  0  0
  8  9  2  0  0  0  0
  9 10  1  0  0  0  0
 11 10  1  6  0  0  0
 12 13  1  6  0  0  0
 12 11  1  0  0  0  0
 14 12  1  0  0  0  0
 15 14  1  6  0  0  0
 15  9  1  0  0  0  0
 15 19  1  0  0  0  0
 16 15  1  0  0  0  0
 17 16  1  0  0  0  0
 17  8  1  0  0  0  0
 18 17  2  0  0  0  0
 19 20  1  1  0  0  0
 19 24  1  0  0  0  0
 20 21  2  0  0  0  0
 21 22  1  0  0  0  0
 22 23  2  0  0  0  0
 24 25  1  6  0  0  0
 24 11  1  0  0  0  0
 26 25  1  0  0  0  0
M  END
>  <minimizedAffinity>
-8.03548336

$$$$

 OpenBabel02162310103D

 26 29  0  0  1  0  0  0  0  0999 V2000
   50.0770   53.4250   60.3170 C   0  0  0  0  0  1  0  0  0  0  0  0
   51.2980   54.1610   60.7420 C   0  0  1  0  0  3  0  0  0  0  0  0
   50.9750   55.0630   61.9290 C   0  0  0  0  0  2  0  0  0  0  0  0
   50.8680   56.4750   61.6250 C   0  0  1  0  0  3  0  0  0  0  0  0
   49.7010   57.1440   62.3730 C   0  0  0  0  0  1  0  0  0  0  0  0
   52.0140   57.3710   61.7920 C   0  0  2  0  0  3  0  0  0  0  0  0
   51.7090   58.5890   61.4580 O   0  0  0  0  0  1  0  0  0  0  0  0
   53.3860   57.1030   62.2540 C   0  0  0  0  0  0  0  0  0  0  0  0
   53.8560   56.4340   63.2460 C   0  0  0  0  0  0  0  0  0  0  0  0
   53.6210   55.6920   64.4330 O   0  0  0  0  0  0  0  0  0  0  0  0
   54.6710   55.1430   65.1790 C   0  0  2  0  0  3  0  0  0  0  0  0
   55.4310   56.4190   65.6370 C   0  0  2  0  0  3  0  0  0  0  0  0
   54.3530   57.3520   66.1270 C   0  0  0  0  0  1  0  0  0  0  0  0
   56.0660   56.8890   64.3340 C   0  0  0  0  0  2  0  0  0  0  0  0
   55.3750   56.4040   63.1060 C   0  0  2  0  0  0  0  0  0  0  0  0
   55.7100   57.1970   62.0590 O   0  0  0  0  0  0  0  0  0  0  0  0
   54.5410   57.6240   61.4580 C   0  0  0  0  0  0  0  0  0  0  0  0
   54.5300   58.3460   60.3970 O   0  0  0  0  0  0  0  0  0  0  0  0
   55.6080   54.8780   62.8950 C   0  0  2  0  0  3  0  0  0  0  0  0
   54.4470   54.4690   62.0040 C   0  0  0  0  0  3  0  0  0  0  0  0
   53.5680   53.5570   61.9770 C   0  0  0  0  0  3  0  0  0  0  0  0
   52.4320   53.2320   61.0560 C   0  0  0  0  0  0  0  0  0  0  0  0
   52.3390   52.1130   60.4620 O   0  0  0  0  0  0  0  0  0  0  0  0
   55.6590   54.3660   64.2710 C   0  0  1  0  0  3  0  0  0  0  0  0
   56.9070   54.4100   64.8400 O   0  0  0  0  0  0  0  0  0  0  0  0
   57.1930   55.3330   64.9220 H   0  0  0  0  0  0  0  0  0  0  0  0
  2  1  1  1  0  0  0
  2 22  1  0  0  0  0
  2  3  1  0  0  0  0
  4  6  1  0  0  0  0
  4  3  1  0  0  0  0
  4  5  1  1  0  0  0
  6  7  1  6  0  0  0
  6  8  1  0  0  0  0
  8  9  2  0  0  0  0
  9 10  1  0  0  0  0
 11 10  1  6  0  0  0
 11 12  1  0  0  0  0
 12 13  1  6  0  0  0
 14 12  1  0  0  0  0
 15  9  1  0  0  0  0
 15 14  1  1  0  0  0
 16 15  1  0  0  0  0
 17 16  1  0  0  0  0
 17  8  1  0  0  0  0
 18 17  2  0  0  0  0
 19 20  1  6  0  0  0
 19 15  1  0  0  0  0
 19 24  1  0  0  0  0
 21 20  2  0  0  0  0
 22 21  1  0  0  0  0
 23 22  2  0  0  0  0
 24 25  1  1  0  0  0
 24 11  1  0  0  0  0
 25 26  1  0  0  0  0
M  END
>  <minimizedAffinity>
-8.02581978

$$$$

 OpenBabel02162310103D

 26 29  0  0  1  0  0  0  0  0999 V2000
   75.3300   48.5610   59.9850 C   0  0  0  0  0  1  0  0  0  0  0  0
   74.1400   49.1990   59.3620 C   0  0  1  0  0  3  0  0  0  0  0  0
   74.1850   49.0170   57.8480 C   0  0  0  0  0  2  0  0  0  0  0  0
   74.5580   50.1930   57.0910 C   0  0  1  0  0  3  0  0  0  0  0  0
   75.5060   49.8580   55.9250 C   0  0  0  0  0  1  0  0  0  0  0  0
   73.5410   51.0860   56.5330 C   0  0  2  0  0  3  0  0  0  0  0  0
   74.0850   52.0800   55.9000 O   0  0  0  0  0  1  0  0  0  0  0  0
   72.0710   51.0210   56.5880 C   0  0  0  0  0  0  0  0  0  0  0  0
   71.2330   50.0650   56.4000 C   0  0  0  0  0  0  0  0  0  0  0  0
   70.9870   48.7210   56.0170 O   0  0  0  0  0  0  0  0  0  0  0  0
   69.6960   48.1800   56.0100 C   0  0  2  0  0  3  0  0  0  0  0  0
   68.9970   49.0480   54.9280 C   0  0  2  0  0  3  0  0  0  0  0  0
   69.9750   49.0910   53.7810 C   0  0  0  0  0  1  0  0  0  0  0  0
   68.8680   50.3900   55.6390 C   0  0  0  0  0  2  0  0  0  0  0  0
   69.8430   50.5920   56.7480 C   0  0  2  0  0  0  0  0  0  0  0  0
   69.9570   51.9170   57.0110 O   0  0  0  0  0  0  0  0  0  0  0  0
   71.3000   52.2430   56.9780 C   0  0  0  0  0  0  0  0  0  0  0  0
   71.7340   53.4210   57.2480 O   0  0  0  0  0  0  0  0  0  0  0  0
   69.4980   49.6910   57.9710 C   0  0  2  0  0  3  0  0  0  0  0  0
   70.8200   49.5960   58.7150 C   0  0  0  0  0  3  0  0  0  0  0  0
   71.5400   48.6860   59.2240 C   0  0  0  0  0  3  0  0  0  0  0  0
   72.8580   48.6770   59.9370 C   0  0  0  0  0  0  0  0  0  0  0  0
   72.9920   48.2090   61.1100 O   0  0  0  0  0  0  0  0  0  0  0  0
   68.9540   48.4820   57.3380 C   0  0  1  0  0  3  0  0  0  0  0  0
   67.6060   48.5400   57.0860 O   0  0  0  0  0  0  0  0  0  0  0  0
   67.4280   49.2430   56.4420 H   0  0  0  0  0  0  0  0  0  0  0  0
  2 22  1  0  0  0  0
  2  1  1  1  0  0  0
  3  2  1  0  0  0  0
  4  5  1  6  0  0  0
  4  3  1  0  0  0  0
  6  7  1  1  0  0  0
  6  8  1  0  0  0  0
  6  4  1  0  0  0  0
  8 17  1  0  0  0  0
  9  8  2  0  0  0  0
  9 15  1  0  0  0  0
 10  9  1  0  0  0  0
 11 10  1  1  0  0  0
 11 24  1  0  0  0  0
 12 13  1  6  0  0  0
 12 14  1  0  0  0  0
 12 11  1  0  0  0  0
 15 14  1  6  0  0  0
 15 16  1  0  0  0  0
 15 19  1  0  0  0  0
 17 16  1  0  0  0  0
 17 18  2  0  0  0  0
 19 20  1  6  0  0  0
 20 21  2  0  0  0  0
 21 22  1  0  0  0  0
 22 23  2  0  0  0  0
 24 25  1  6  0  0  0
 24 19  1  0  0  0  0
 26 25  1  0  0  0  0
M  END
>  <minimizedAffinity>
-7.96721649

$$$$

 OpenBabel02162310103D

 26 29  0  0  1  0  0  0  0  0999 V2000
   78.0650   48.7720   58.4320 C   0  0  0  0  0  1  0  0  0  0  0  0
   76.7570   49.0990   57.8040 C   0  0  1  0  0  3  0  0  0  0  0  0
   76.0340   50.1590   58.6290 C   0  0  0  0  0  2  0  0  0  0  0  0
   74.9320   49.6760   59.4330 C   0  0  1  0  0  3  0  0  0  0  0  0
   74.8970   50.3310   60.8260 C   0  0  0  0  0  1  0  0  0  0  0  0
   73.5560   49.7250   58.9360 C   0  0  2  0  0  3  0  0  0  0  0  0
   72.7250   49.2370   59.8060 O   0  0  0  0  0  1  0  0  0  0  0  0
   73.0120   50.2190   57.6590 C   0  0  0  0  0  0  0  0  0  0  0  0
   73.2220   51.2890   56.9790 C   0  0  0  0  0  0  0  0  0  0  0  0
   73.8410   52.5610   56.8730 O   0  0  0  0  0  0  0  0  0  0  0  0
   73.6710   53.3730   55.7440 C   0  0  2  0  0  3  0  0  0  0  0  0
   72.1460   53.6620   55.7920 C   0  0  2  0  0  3  0  0  0  0  0  0
   71.8690   54.0270   57.2280 C   0  0  0  0  0  1  0  0  0  0  0  0
   71.5580   52.3090   55.4070 C   0  0  0  0  0  2  0  0  0  0  0  0
   72.4650   51.1540   55.6600 C   0  0  2  0  0  0  0  0  0  0  0  0
   71.7350   50.0130   55.7160 O   0  0  0  0  0  0  0  0  0  0  0  0
   72.0540   49.3620   56.8930 C   0  0  0  0  0  0  0  0  0  0  0  0
   71.5660   48.2160   57.2060 O   0  0  0  0  0  0  0  0  0  0  0  0
   73.6540   51.1410   54.6530 C   0  0  2  0  0  3  0  0  0  0  0  0
   74.7060   50.3110   55.3690 C   0  0  0  0  0  3  0  0  0  0  0  0
   75.9400   50.4010   55.6410 C   0  0  0  0  0  3  0  0  0  0  0  0
   76.9120   49.5300   56.3770 C   0  0  0  0  0  0  0  0  0  0  0  0
   77.9710   49.0850   55.8340 O   0  0  0  0  0  0  0  0  0  0  0  0
   73.9090   52.5730   54.4370 C   0  0  1  0  0  3  0  0  0  0  0  0
   73.1540   53.1310   53.4360 O   0  0  0  0  0  0  0  0  0  0  0  0
   72.2160   53.0930   53.6790 H   0  0  0  0  0  0  0  0  0  0  0  0
  2  1  1  1  0  0  0
  2  3  1  0  0  0  0
  3  4  1  0  0  0  0
  4  5  1  1  0  0  0
  6  4  1  0  0  0  0
  6  7  1  6  0  0  0
  8  6  1  0  0  0  0
  9  8  2  0  0  0  0
 10  9  1  0  0  0  0
 11 12  1  0  0  0  0
 11 10  1  1  0  0  0
 12 13  1  1  0  0  0
 14 12  1  0  0  0  0
 15 14  1  6  0  0  0
 15 16  1  0  0  0  0
 15  9  1  0  0  0  0
 16 17  1  0  0  0  0
 17 18  2  0  0  0  0
 17  8  1  0  0  0  0
 19 20  1  1  0  0  0
 19 15  1  0  0  0  0
 20 21  2  0  0  0  0
 21 22  1  0  0  0  0
 22  2  1  0  0  0  0
 23 22  2  0  0  0  0
 24 25  1  6  0  0  0
 24 19  1  0  0  0  0
 24 11  1  0  0  0  0
 25 26  1  0  0  0  0
M  END
>  <minimizedAffinity>
-7.8388319

$$$$

 OpenBabel02162310103D

 26 29  0  0  1  0  0  0  0  0999 V2000
   74.3760   47.6090   58.4440 C   0  0  0  0  0  1  0  0  0  0  0  0
   73.2250   48.1030   57.6400 C   0  0  1  0  0  3  0  0  0  0  0  0
   71.9180   47.8170   58.3740 C   0  0  0  0  0  2  0  0  0  0  0  0
   71.1370   46.7180   57.8470 C   0  0  1  0  0  3  0  0  0  0  0  0
   70.5220   45.8550   58.9620 C   0  0  0  0  0  1  0  0  0  0  0  0
   70.0590   46.9520   56.8840 C   0  0  2  0  0  3  0  0  0  0  0  0
   69.4930   45.8370   56.5330 O   0  0  0  0  0  1  0  0  0  0  0  0
   69.5570   48.2010   56.2870 C   0  0  0  0  0  0  0  0  0  0  0  0
   69.2640   49.3490   56.7860 C   0  0  0  0  0  0  0  0  0  0  0  0
   69.1030   50.1720   57.9310 O   0  0  0  0  0  0  0  0  0  0  0  0
   68.7120   51.5130   57.8260 C   0  0  2  0  0  3  0  0  0  0  0  0
   67.2900   51.3790   57.2150 C   0  0  2  0  0  3  0  0  0  0  0  0
   66.6250   50.2950   58.0250 C   0  0  0  0  0  1  0  0  0  0  0  0
   67.6020   50.9380   55.7890 C   0  0  0  0  0  2  0  0  0  0  0  0
   68.9330   50.2870   55.6280 C   0  0  2  0  0  0  0  0  0  0  0  0
   68.9390   49.5540   54.4880 O   0  0  0  0  0  0  0  0  0  0  0  0
   69.3580   48.2750   54.8060 C   0  0  0  0  0  0  0  0  0  0  0  0
   69.5240   47.3600   53.9210 O   0  0  0  0  0  0  0  0  0  0  0  0
   70.0880   51.3240   55.7670 C   0  0  2  0  0  3  0  0  0  0  0  0
   71.2850   50.4620   56.1340 C   0  0  0  0  0  3  0  0  0  0  0  0
   72.2080   50.4690   57.0020 C   0  0  0  0  0  3  0  0  0  0  0  0
   73.3570   49.5580   57.3080 C   0  0  0  0  0  0  0  0  0  0  0  0
   74.5620   49.9630   57.3140 O   0  0  0  0  0  0  0  0  0  0  0  0
   69.5590   52.2630   56.7660 C   0  0  1  0  0  3  0  0  0  0  0  0
   68.8020   53.2770   56.2350 O   0  0  0  0  0  0  0  0  0  0  0  0
   68.0090   52.9050   55.8190 H   0  0  0  0  0  0  0  0  0  0  0  0
  2  3  1  0  0  0  0
  2  1  1  1  0  0  0
  4  3  1  0  0  0  0
  4  5  1  1  0  0  0
  6  7  1  6  0  0  0
  6  4  1  0  0  0  0
  8  9  2  0  0  0  0
  8  6  1  0  0  0  0
  9 10  1  0  0  0  0
 11 10  1  6  0  0  0
 12 11  1  0  0  0  0
 12 13  1  1  0  0  0
 14 12  1  0  0  0  0
 15 19  1  0  0  0  0
 15 14  1  1  0  0  0
 15  9  1  0  0  0  0
 16 17  1  0  0  0  0
 16 15  1  0  0  0  0
 17  8  1  0  0  0  0
 18 17  2  0  0  0  0
 19 20  1  1  0  0  0
 19 24  1  0  0  0  0
 20 21  2  0  0  0  0
 21 22  1  0  0  0  0
 22 23  2  0  0  0  0
 22  2  1  0  0  0  0
 24 25  1  6  0  0  0
 24 11  1  0  0  0  0
 26 25  1  0  0  0  0
M  END
>  <minimizedAffinity>
-7.55012083

$$$$

 OpenBabel02162310103D

 26 29  0  0  1  0  0  0  0  0999 V2000
   67.7520   51.3480   56.3460 C   0  0  0  0  0  1  0  0  0  0  0  0
   69.1750   50.9160   56.3580 C   0  0  1  0  0  3  0  0  0  0  0  0
   70.0380   51.9850   57.0230 C   0  0  0  0  0  2  0  0  0  0  0  0
   70.8370   52.7870   56.1210 C   0  0  1  0  0  3  0  0  0  0  0  0
   70.8530   54.2730   56.5230 C   0  0  0  0  0  1  0  0  0  0  0  0
   72.2290   52.4380   55.8320 C   0  0  2  0  0  3  0  0  0  0  0  0
   72.7600   53.2780   54.9970 O   0  0  0  0  0  1  0  0  0  0  0  0
   73.0640   51.3300   56.3250 C   0  0  0  0  0  0  0  0  0  0  0  0
   73.2590   50.8390   57.4960 C   0  0  0  0  0  0  0  0  0  0  0  0
   73.0380   50.9100   58.8960 O   0  0  0  0  0  0  0  0  0  0  0  0
   73.5840   49.9690   59.7780 C   0  0  2  0  0  3  0  0  0  0  0  0
   75.1070   50.2110   59.5910 C   0  0  2  0  0  3  0  0  0  0  0  0
   75.2660   51.7090   59.6420 C   0  0  0  0  0  1  0  0  0  0  0  0
   75.3460   49.6430   58.1970 C   0  0  0  0  0  2  0  0  0  0  0  0
   74.1280   49.5940   57.3390 C   0  0  2  0  0  0  0  0  0  0  0  0
   74.4980   49.5100   56.0380 O   0  0  0  0  0  0  0  0  0  0  0  0
   73.8470   50.5130   55.3440 C   0  0  0  0  0  0  0  0  0  0  0  0
   73.9490   50.6560   54.0720 O   0  0  0  0  0  0  0  0  0  0  0  0
   73.1380   48.4950   57.8290 C   0  0  2  0  0  3  0  0  0  0  0  0
   71.8060   48.9460   57.2520 C   0  0  0  0  0  3  0  0  0  0  0  0
   70.6200   49.1130   57.6640 C   0  0  0  0  0  3  0  0  0  0  0  0
   69.3510   49.5830   57.0220 C   0  0  0  0  0  0  0  0  0  0  0  0
   68.2980   48.8720   56.9960 O   0  0  0  0  0  0  0  0  0  0  0  0
   73.3230   48.5220   59.2860 C   0  0  1  0  0  3  0  0  0  0  0  0
   74.3370   47.7140   59.7370 O   0  0  0  0  0  0  0  0  0  0  0  0
   75.1840   48.0320   59.3860 H   0  0  0  0  0  0  0  0  0  0  0  0
  2  1  1  1  0  0  0
  2 22  1  0  0  0  0
  2  3  1  0  0  0  0
  4  5  1  1  0  0  0
  4  3  1  0  0  0  0
  6  7  1  6  0  0  0
  6  4  1  0  0  0  0
  6  8  1  0  0  0  0
  8  9  2  0  0  0  0
  9 10  1  0  0  0  0
 11 10  1  6  0  0  0
 12 13  1  6  0  0  0
 12 11  1  0  0  0  0
 14 12  1  0  0  0  0
 15  9  1  0  0  0  0
 15 19  1  0  0  0  0
 15 14  1  1  0  0  0
 16 15  1  0  0  0  0
 17 16  1  0  0  0  0
 17  8  1  0  0  0  0
 18 17  2  0  0  0  0
 19 20  1  1  0  0  0
 19 24  1  0  0  0  0
 20 21  2  0  0  0  0
 22 21  1  0  0  0  0
 23 22  2  0  0  0  0
 24 25  1  6  0  0  0
 24 11  1  0  0  0  0
 26 25  1  0  0  0  0
M  END
>  <minimizedAffinity>
-7.32323647

$$$$

 OpenBabel02162310103D

 26 29  0  0  1  0  0  0  0  0999 V2000
   66.4240   41.8350   55.7440 C   0  0  0  0  0  1  0  0  0  0  0  0
   67.4300   42.1800   56.7840 C   0  0  1  0  0  3  0  0  0  0  0  0
   68.1930   40.9270   57.2050 C   0  0  0  0  0  2  0  0  0  0  0  0
   67.8240   40.3780   58.4920 C   0  0  1  0  0  3  0  0  0  0  0  0
   67.7610   38.8410   58.4730 C   0  0  0  0  0  1  0  0  0  0  0  0
   68.5670   40.7300   59.7040 C   0  0  2  0  0  3  0  0  0  0  0  0
   68.0700   40.1380   60.7480 O   0  0  0  0  0  1  0  0  0  0  0  0
   69.7300   41.6130   59.8960 C   0  0  0  0  0  0  0  0  0  0  0  0
   70.8410   41.7410   59.2630 C   0  0  0  0  0  0  0  0  0  0  0  0
   71.7220   41.2850   58.2480 O   0  0  0  0  0  0  0  0  0  0  0  0
   72.9510   41.9100   58.0020 C   0  0  2  0  0  3  0  0  0  0  0  0
   73.7020   41.6610   59.3390 C   0  0  2  0  0  3  0  0  0  0  0  0
   73.4650   40.2050   59.6460 C   0  0  0  0  0  1  0  0  0  0  0  0
   72.9620   42.5910   60.2930 C   0  0  0  0  0  2  0  0  0  0  0  0
   71.5790   42.9370   59.8590 C   0  0  2  0  0  0  0  0  0  0  0  0
   70.8680   43.3710   60.9290 O   0  0  0  0  0  0  0  0  0  0  0  0
   69.6980   42.6370   60.9870 C   0  0  0  0  0  0  0  0  0  0  0  0
   68.7840   42.8570   61.8630 O   0  0  0  0  0  0  0  0  0  0  0  0
   71.5980   43.8960   58.6310 C   0  0  2  0  0  3  0  0  0  0  0  0
   70.2270   43.6900   58.0090 C   0  0  0  0  0  3  0  0  0  0  0  0
   69.7490   43.4680   56.8570 C   0  0  0  0  0  3  0  0  0  0  0  0
   68.3640   43.2590   56.3260 C   0  0  0  0  0  0  0  0  0  0  0  0
   67.8660   43.9960   55.4190 O   0  0  0  0  0  0  0  0  0  0  0  0
   72.7850   43.4480   57.8910 C   0  0  1  0  0  3  0  0  0  0  0  0
   73.9540   44.0470   58.2920 O   0  0  0  0  0  0  0  0  0  0  0  0
   74.1430   43.8020   59.2110 H   0  0  0  0  0  0  0  0  0  0  0  0
  2  1  1  6  0  0  0
  2  3  1  0  0  0  0
  3  4  1  0  0  0  0
  4  5  1  6  0  0  0
  4  6  1  0  0  0  0
  6  8  1  0  0  0  0
  6  7  1  1  0  0  0
  8 17  1  0  0  0  0
  9 15  1  0  0  0  0
  9  8  2  0  0  0  0
 10  9  1  0  0  0  0
 11 10  1  1  0  0  0
 11 12  1  0  0  0  0
 12 13  1  1  0  0  0
 12 14  1  0  0  0  0
 15 14  1  1  0  0  0
 15 16  1  0  0  0  0
 16 17  1  0  0  0  0
 17 18  2  0  0  0  0
 19 20  1  6  0  0  0
 19 15  1  0  0  0  0
 21 20  2  0  0  0  0
 22  2  1  0  0  0  0
 22 21  1  0  0  0  0
 23 22  2  0  0  0  0
 24 11  1  0  0  0  0
 24 25  1  1  0  0  0
 24 19  1  0  0  0  0
 25 26  1  0  0  0  0
M  END
>  <minimizedAffinity>
-7.30678892

$$$$

 OpenBabel02162310103D

 26 29  0  0  1  0  0  0  0  0999 V2000
   65.1620   37.3670   62.6480 C   0  0  0  0  0  1  0  0  0  0  0  0
   65.9090   38.1320   61.6130 C   0  0  1  0  0  3  0  0  0  0  0  0
   66.7590   39.2110   62.2780 C   0  0  0  0  0  2  0  0  0  0  0  0
   66.2520   40.5620   62.1570 C   0  0  1  0  0  3  0  0  0  0  0  0
   66.4160   41.3620   63.4620 C   0  0  0  0  0  1  0  0  0  0  0  0
   66.7120   41.4480   61.0860 C   0  0  2  0  0  3  0  0  0  0  0  0
   66.1300   42.6070   61.1540 O   0  0  0  0  0  1  0  0  0  0  0  0
   67.6830   41.2230   60.0030 C   0  0  0  0  0  0  0  0  0  0  0  0
   68.8580   40.7020   59.9800 C   0  0  0  0  0  0  0  0  0  0  0  0
   69.9600   40.1550   60.6870 O   0  0  0  0  0  0  0  0  0  0  0  0
   71.1090   39.7030   60.0270 C   0  0  2  0  0  3  0  0  0  0  0  0
   71.6430   41.0160   59.3920 C   0  0  2  0  0  3  0  0  0  0  0  0
   71.5680   42.0360   60.4980 C   0  0  0  0  0  1  0  0  0  0  0  0
   70.6200   41.2690   58.2900 C   0  0  0  0  0  2  0  0  0  0  0  0
   69.2990   40.6180   58.5200 C   0  0  2  0  0  0  0  0  0  0  0  0
   68.3560   41.2350   57.7670 O   0  0  0  0  0  0  0  0  0  0  0  0
   67.3120   41.5920   58.6000 C   0  0  0  0  0  0  0  0  0  0  0  0
   66.2370   42.1440   58.1670 O   0  0  0  0  0  0  0  0  0  0  0  0
   69.3950   39.0730   58.3440 C   0  0  2  0  0  3  0  0  0  0  0  0
   68.1990   38.5590   59.1290 C   0  0  0  0  0  3  0  0  0  0  0  0
   67.9680   37.6730   60.0040 C   0  0  0  0  0  3  0  0  0  0  0  0
   66.7430   37.2370   60.7470 C   0  0  0  0  0  0  0  0  0  0  0  0
   66.3110   36.0430   60.7030 O   0  0  0  0  0  0  0  0  0  0  0  0
   70.7460   38.7750   58.8390 C   0  0  1  0  0  3  0  0  0  0  0  0
   71.7270   38.8780   57.8850 O   0  0  0  0  0  0  0  0  0  0  0  0
   71.7860   39.7960   57.5790 H   0  0  0  0  0  0  0  0  0  0  0  0
  2  3  1  0  0  0  0
  2  1  1  1  0  0  0
  4  3  1  0  0  0  0
  4  5  1  1  0  0  0
  6  7  1  6  0  0  0
  6  4  1  0  0  0  0
  8  6  1  0  0  0  0
  9  8  2  0  0  0  0
  9 10  1  0  0  0  0
 11 10  1  6  0  0  0
 12 11  1  0  0  0  0
 12 13  1  1  0  0  0
 14 12  1  0  0  0  0
 15 14  1  6  0  0  0
 15  9  1  0  0  0  0
 16 15  1  0  0  0  0
 16 17  1  0  0  0  0
 17  8  1  0  0  0  0
 18 17  2  0  0  0  0
 19 15  1  0  0  0  0
 19 24  1  0  0  0  0
 19 20  1  1  0  0  0
 20 21  2  0  0  0  0
 21 22  1  0  0  0  0
 22  2  1  0  0  0  0
 23 22  2  0  0  0  0
 24 25  1  6  0  0  0
 24 11  1  0  0  0  0
 26 25  1  0  0  0  0
M  END
>  <minimizedAffinity>
-7.20483589

$$$$
