mydocking/data/smiles/4.pdb


 26 29  0  0  0  0  0  0  0  0999 V2000
   70.5556   39.7327   59.3687 C   0  0  0  0  0  0  0  0  0  0  0  0
   71.2769   40.9674   58.8738 C   0  0  0  0  0  0  0  0  0  0  0  0
   71.9093   41.6774   60.0155 C   0  0  0  0  0  0  0  0  0  0  0  0
   72.5365   42.8801   59.5191 O   0  0  0  0  0  0  0  0  0  0  0  0
   71.7021   43.7457   58.7802 C   0  0  0  0  0  0  0  0  0  0  0  0
   71.9720   45.0823   58.7693 C   0  0  0  0  0  0  0  0  0  0  0  0
   71.0850   45.8571   58.0074 C   0  0  0  0  0  0  0  0  0  0  0  0
   71.1911   47.1971   57.8802 F   0  0  0  0  0  0  0  0  0  0  0  0
   70.0264   45.2927   57.3280 C   0  0  0  0  0  0  0  0  0  0  0  0
   69.7660   43.9384   57.3485 C   0  0  0  0  0  0  0  0  0  0  0  0
   68.6984   43.3924   56.6628 C   0  0  0  0  0  0  0  0  0  0  0  0
   67.9337   44.1290   55.9970 O   0  0  0  0  0  0  0  0  0  0  0  0
   68.4605   42.0382   56.7008 C   0  0  0  0  0  0  0  0  0  0  0  0
   69.3371   41.2939   57.4477 C   0  0  0  0  0  0  0  0  0  0  0  0
   70.3962   41.8371   58.1274 N   0  0  0  0  0  0  0  0  0  0  0  0
   70.6474   43.1558   58.1057 C   0  0  0  0  0  0  0  0  0  0  0  0
   73.0232   45.7133   59.4402 N   0  0  0  0  0  0  0  0  0  0  0  0
   72.7536   46.3221   60.7616 C   0  0  0  0  0  0  0  0  0  0  0  0
   74.0383   46.9392   61.3247 C   0  0  0  0  0  0  0  0  0  0  0  0
   74.7049   47.8078   60.4251 N   0  0  0  0  0  0  0  0  0  0  0  0
   74.2504   49.1680   60.5698 C   0  0  0  0  0  0  0  0  0  0  0  0
   74.6373   47.3953   59.0398 C   0  0  0  0  0  0  0  0  0  0  0  0
   74.3846   45.8789   59.0565 C   0  0  0  0  0  0  0  0  0  0  0  0
   67.3420   41.4199   55.9889 C   0  0  0  0  0  0  0  0  0  0  0  0
   67.5213   40.3342   55.3846 O   0  0  0  0  0  0  0  0  0  0  0  0
   66.0845   41.9830   55.9535 O   0  0  0  0  0  0  0  0  0  0  0  0
  2  1  1  0  0  0
  2  3  1  0  0  0
  2 15  1  0  0  0
  3  4  1  0  0  0
  4  5  1  0  0  0
  5  6  1  0  0  0
  5 16  2  0  0  0
  6 17  1  0  0  0
  6  7  2  0  0  0
 17 18  1  0  0  0
 17 23  1  0  0  0
 18 19  1  0  0  0
 19 20  1  0  0  0
 20 21  1  0  0  0
 20 22  1  0  0  0
 22 23  1  0  0  0
  7  8  1  0  0  0
  7  9  1  0  0  0
  9 10  2  0  0  0
 10 11  1  0  0  0
 10 16  1  0  0  0
 11 12  2  0  0  0
 11 13  1  0  0  0
 13 24  1  0  0  0
 13 14  2  0  0  0
 24 25  2  0  0  0
 24 26  1  0  0  0
 14 15  1  0  0  0
 15 16  1  0  0  0
M  CHG 1  20   1
M  END
> <minimizedAffinity>
-5.54844

$$$$
mydocking/data/smiles/8.pdb


 24 27  0  0  0  0  0  0  0  0999 V2000
   68.8074   44.2301   56.3152 C   0  0  0  0  0  0  0  0  0  0  0  0
   68.2910   44.7407   55.1381 C   0  0  0  0  0  0  0  0  0  0  0  0
   68.3581   46.0293   54.7748 N   0  0  0  0  0  0  0  0  0  0  0  0
   68.9627   46.8954   55.5911 C   0  0  0  0  0  0  0  0  0  0  0  0
   69.0265   48.2243   55.2055 C   0  0  0  0  0  0  0  0  0  0  0  0
   69.6434   49.1442   56.0259 C   0  0  0  0  0  0  0  0  0  0  0  0
   70.1762   48.7053   57.2046 C   0  0  0  0  0  0  0  0  0  0  0  0
   70.7905   49.6134   58.0237 F   0  0  0  0  0  0  0  0  0  0  0  0
   70.1337   47.3948   57.6237 C   0  0  0  0  0  0  0  0  0  0  0  0
   69.5137   46.4611   56.8034 C   0  0  0  0  0  0  0  0  0  0  0  0
   69.4300   45.1305   57.1538 C   0  0  0  0  0  0  0  0  0  0  0  0
   69.9309   44.7493   58.2484 O   0  0  0  0  0  0  0  0  0  0  0  0
   69.7425   50.5159   55.6911 N   0  0  0  0  0  0  0  0  0  0  0  0
   70.8824   51.0064   54.9298 C   0  0  0  0  0  0  0  0  0  0  0  0
   71.3363   52.3550   55.3927 C   0  0  0  0  0  0  0  0  0  0  0  0
   70.2808   53.2874   55.6325 N   0  0  0  0  0  0  0  0  0  0  0  0
   69.0350   52.7334   55.1884 C   0  0  0  0  0  0  0  0  0  0  0  0
   68.7498   51.5084   56.0661 C   0  0  0  0  0  0  0  0  0  0  0  0
   67.5953   42.2500   56.5103 O   0  0  0  0  0  0  0  0  0  0  0  0
   68.7026   42.8154   56.6551 C   0  0  0  0  0  0  0  0  0  0  0  0
   69.7708   42.0896   57.1241 O   0  0  0  0  0  0  0  0  0  0  0  0
   67.8058   46.5292   53.5339 C   0  0  0  0  0  0  0  0  0  0  0  0
   67.5795   45.6400   52.3783 C   0  0  0  0  0  0  0  0  0  0  0  0
   68.8137   46.5158   52.3675 C   0  0  0  0  0  0  0  0  0  0  0  0
 19 20  2  0  0  0
 20 21  1  0  0  0
 20  1  1  0  0  0
  1  2  2  0  0  0
  1 11  1  0  0  0
  2  3  1  0  0  0
  3 22  1  0  0  0
  3  4  1  0  0  0
 22 23  1  0  0  0
 22 24  1  0  0  0
 23 24  1  0  0  0
  4  5  1  0  0  0
  4 10  2  0  0  0
  5  6  2  0  0  0
  6 13  1  0  0  0
  6  7  1  0  0  0
 13 14  1  0  0  0
 13 18  1  0  0  0
 14 15  1  0  0  0
 15 16  1  0  0  0
 16 17  1  0  0  0
 17 18  1  0  0  0
  7  8  1  0  0  0
  7  9  2  0  0  0
  9 10  1  0  0  0
 10 11  1  0  0  0
 11 12  2  0  0  0
M  CHG 1  16   1
M  END
> <minimizedAffinity>
-6.00613

$$$$
mydocking/data/smiles/9.pdb


 23 25  0  0  0  0  0  0  0  0999 V2000
   68.8509   44.9281   56.1215 N   0  0  0  0  0  0  0  0  0  0  0  0
   68.0043   43.9493   55.6903 C   0  0  0  0  0  0  0  0  0  0  0  0
   68.0269   42.6738   56.2088 C   0  0  0  0  0  0  0  0  0  0  0  0
   68.9604   42.4456   57.1959 C   0  0  0  0  0  0  0  0  0  0  0  0
   69.0247   41.2968   57.7062 O   0  0  0  0  0  0  0  0  0  0  0  0
   69.8244   43.4254   57.6457 C   0  0  0  0  0  0  0  0  0  0  0  0
   70.7554   43.1988   58.6332 C   0  0  0  0  0  0  0  0  0  0  0  0
   71.6105   44.1868   59.0763 C   0  0  0  0  0  0  0  0  0  0  0  0
   72.5225   43.9543   60.0481 F   0  0  0  0  0  0  0  0  0  0  0  0
   71.5736   45.4591   58.5456 C   0  0  0  0  0  0  0  0  0  0  0  0
   70.6332   45.6766   57.5504 C   0  0  0  0  0  0  0  0  0  0  0  0
   69.7654   44.6943   57.0939 C   0  0  0  0  0  0  0  0  0  0  0  0
   72.4408   46.4925   58.9823 N   0  0  0  0  0  0  0  0  0  0  0  0
   73.7717   46.6990   58.4561 C   0  0  0  0  0  0  0  0  0  0  0  0
   74.7736   47.0474   59.5329 C   0  0  0  0  0  0  0  0  0  0  0  0
   74.2615   47.9560   60.5144 N   0  0  0  0  0  0  0  0  0  0  0  0
   73.0526   47.3789   61.1074 C   0  0  0  0  0  0  0  0  0  0  0  0
   71.9931   47.4049   60.0100 C   0  0  0  0  0  0  0  0  0  0  0  0
   67.1290   41.6235   55.7545 C   0  0  0  0  0  0  0  0  0  0  0  0
   65.9020   41.8732   55.6945 O   0  0  0  0  0  0  0  0  0  0  0  0
   67.5515   40.3605   55.3823 O   0  0  0  0  0  0  0  0  0  0  0  0
   68.1750   46.2695   54.1679 C   0  0  0  0  0  0  0  0  0  0  0  0
   68.7949   46.2370   55.5415 C   0  0  0  0  0  0  0  0  0  0  0  0
 22 23  1  0  0  0
 23  1  1  0  0  0
  1  2  1  0  0  0
  1 12  1  0  0  0
  2  3  2  0  0  0
  3 19  1  0  0  0
  3  4  1  0  0  0
 19 20  2  0  0  0
 19 21  1  0  0  0
  4  5  2  0  0  0
  4  6  1  0  0  0
  6  7  1  0  0  0
  6 12  2  0  0  0
  7  8  2  0  0  0
  8  9  1  0  0  0
  8 10  1  0  0  0
 10 13  1  0  0  0
 10 11  2  0  0  0
 13 14  1  0  0  0
 13 18  1  0  0  0
 14 15  1  0  0  0
 15 16  1  0  0  0
 16 17  1  0  0  0
 17 18  1  0  0  0
 11 12  1  0  0  0
M  CHG 1  16   1
M  END
> <minimizedAffinity>
-5.73620

$$$$
mydocking/data/smiles/17.pdb


 16 16  0  0  0  0  0  0  0  0999 V2000
   69.9766   49.8695   54.0318 C   0  0  0  0  0  0  0  0  0  0  0  0
   69.6484   49.1125   52.9264 C   0  0  0  0  0  0  0  0  0  0  0  0
   69.0928   47.8546   53.0327 C   0  0  0  0  0  0  0  0  0  0  0  0
   68.6807   46.9046   51.6195 Cl  0  0  0  0  0  0  0  0  0  0  0  0
   68.8402   47.2990   54.2711 C   0  0  0  0  0  0  0  0  0  0  0  0
   68.1308   45.6944   54.4238 Cl  0  0  0  0  0  0  0  0  0  0  0  0
   69.1600   48.0375   55.3911 C   0  0  0  0  0  0  0  0  0  0  0  0
   69.7147   49.2919   55.2688 C   0  0  0  0  0  0  0  0  0  0  0  0
   72.4147   51.3414   54.0135 N   0  0  0  0  0  0  0  0  0  0  0  0
   70.6837   51.4680   53.8903 S   0  0  0  0  0  0  0  0  0  0  0  0
   70.2207   52.3874   54.9660 O   0  0  0  0  0  0  0  0  0  0  0  0
   70.3987   52.0465   52.5271 O   0  0  0  0  0  0  0  0  0  0  0  0
   68.8605   47.3769   56.9785 S   0  0  0  0  0  0  0  0  0  0  0  0
   67.2586   47.7284   57.4388 N   0  0  0  0  0  0  0  0  0  0  0  0
   69.1844   45.9178   57.0507 O   0  0  0  0  0  0  0  0  0  0  0  0
   69.7805   48.1254   57.9342 O   0  0  0  0  0  0  0  0  0  0  0  0
  9 10  1  0  0  0
 10 11  2  0  0  0
 10 12  2  0  0  0
 10  1  1  0  0  0
  1  2  2  0  0  0
  1  8  1  0  0  0
  2  3  1  0  0  0
  3  4  1  0  0  0
  3  5  2  0  0  0
  5  6  1  0  0  0
  5  7  1  0  0  0
  7 13  1  0  0  0
  7  8  2  0  0  0
 13 14  1  0  0  0
 13 15  2  0  0  0
 13 16  2  0  0  0
M  END
> <minimizedAffinity>
-5.81121

$$$$
